FoamFile
{
    version         2;
    format          ascii;
    class           dictionary;
    object          snappyHexMeshDict;
}

//_HEADER_//

castellatedMesh true;
snap            //_DO_SNAP_//;
addLayers       //_DO_ADD_LAYERS_//;

//_GEOMETRY_//

castellatedMeshControls
{
    maxLocalCells   10000000;
    maxGlobalCells  10000000;
    minRefinementCells 10;
    maxLoadUnbalance 0.1;
    nCellsBetweenLevels 3;
    locationInMesh  ( 0 0 0 );
    allowFreeStandingZoneFaces true;
    resolveFeatureAngle 30;
//_FEATURES_//
    refinementSurfaces
    {
//_REFINEMENTSURFACES_//
    }
    refinementRegions
    {
//_REFINEMENTREGIONS_//
    }
}

snapControls
{
    nSmoothPatch    3;
    tolerance       2;
    nSolveIter      30;
    nRelaxIter      5;
    nFeatureSnapIter 10;
    implicitFeatureSnap false;
    explicitFeatureSnap true;
    multiRegionFeatureSnap false;
}

addLayersControls
{
    relativeSizes   true;
    expansionRatio  1;
    finalLayerThickness 0.3;
    minThickness    0.1;
    nGrow           0;
    featureAngle    60;
    slipFeatureAngle 30;
    nRelaxIter      3;
    nSmoothSurfaceNormals 1;
    nSmoothNormals  3;
    nSmoothThickness 10;
    maxFaceThicknessRatio 0.5;
    maxThicknessToMedialRatio 0.3;
    minMedianAxisAngle 90;
    nBufferCellsNoExtrude 0;
    nLayerIter      50;
    layers
    {
//_LAYERS_//
    }
}

meshQualityControls
{
    maxNonOrtho     65;
    maxBoundarySkewness 20;
    maxInternalSkewness 4;
    maxConcave      80;
    minVol          1e-13;
    minTetQuality   1e-15;
    minArea         -1;
    minTwist        0.02;
    minDeterminant  0.001;
    minFaceWeight   0.02;
    minVolRatio     0.01;
    minTriangleTwist -1;
    nSmoothScale    4;
    errorReduction  0.75;
}

writeFlags      ( scalarLevels layerSets layerFields );

mergeTolerance  1e-06;
