FoamFile
{
    version     2.0;
    format      ascii;
    class       dictionary;
    object      decomposeParDict;
}

//_HEADER_//

numberOfSubdomains //_NCPUS_//;

method          scotch;
// method          simple;

simpleCoeffs
{
    n               (1 1 //_NCPUS_//);
    delta           0.001;
}

hierarchicalCoeffs
{
    n               (1 1 //_NCPUS_//);
    delta           0.001;
    order           xyz;
}

manualCoeffs
{
    dataFile        "cellDecomposition";
}
