FoamFile
{
    version         2;
    format          ascii;
    class           dictionary;
    object          snappyHexMeshDict;
}

//_HEADER_//

maxNonOrtho     //_MAX_NON_ORTHO_//;
maxBoundarySkewness 20;
maxInternalSkewness //_MAX_INTERNAL_SKEWNESS_//;
maxConcave      80;
minVol          1e-15;
minTetQuality   1e-15;
minArea         1e-30;
minTwist        0.01;
minDeterminant  0.001;
minFaceWeight   0.01;
minVolRatio     0.01;
minTriangleTwist //_MIN_TWIST_//;

// Relaxed quality criteria for layer addition phase

relaxed {
    maxNonOrtho //_RELAXED_MAX_NON_ORTHO_//;
}
