FoamFile
{
    version         2;
    format          ascii;
    class           dictionary;
    object          snappyHexMeshDict;
}

//_HEADER_//

castellatedMesh true;
snap            //_DO_SNAP_//;
addLayers       //_DO_ADD_LAYERS_//;

//_GEOMETRY_//

castellatedMeshControls
{
    maxLocalCells   10000000;
    maxGlobalCells  10000000;
    minRefinementCells 10;
    maxLoadUnbalance 0.1;
    nCellsBetweenLevels 3;
    //_LOCATIONINMESH_//
    allowFreeStandingZoneFaces true;
    resolveFeatureAngle 30;
    features
    (
//_FEATURES_//
    );
    refinementSurfaces
    {
//_REFINEMENTSURFACES_//
    }
    refinementRegions
    {
//_REFINEMENTREGIONS_//
    }
}

snapControls
{
    nSmoothPatch    3;
    tolerance       2;
    nSolveIter      300;
    nRelaxIter      10;
    nFeatureSnapIter 10;
    implicitFeatureSnap false;
    explicitFeatureSnap true;
    multiRegionFeatureSnap true;
}

addLayersControls
{
    // Layer sizing
    relativeSizes   true;
    expansionRatio  1;
    finalLayerThickness 0.3;
    minThickness    0.1;
    nGrow           0;

    // Mesh dependencies
    featureAngle    130;
    // mergePatchFacesAngle 45;
    layerTerminationAngle -180; // OpenFOAM.com option
    maxFaceThicknessRatio 0.5;

    // Patch displacement
    nSmoothSurfaceNormals 1;
    nSmoothThickness 10;

    // Medial axis analysis
    //_ANGLE_// 90;
    maxThicknessToMedialRatio 0.3;
    nSmoothNormals  3;
    slipFeatureAngle 30;

    // OpenFOAM.com displacement motion solver
    // meshShrinker displacementMotionSolver;
    // solver displacementLaplacian;
    // displacementLaplacianCoeffs { diffusivity quadratic inverseDistance ("wall.*"); }

    // Mesh shrinking
    nRelaxIter      3;
    nBufferCellsNoExtrude 0;
    nLayerIter      50;
    nRelaxedIter    0;
    nOuterIter      3; // OpenFOAM.com option

    layers
    {
//_LAYERS_//
    }
}

meshQualityControls
{
    maxNonOrtho     //_MAXNONORTHO_//;
    relaxed { maxNonOrtho //_RELAXEDMAXNONORTHO_//; } // for layer addition
    maxBoundarySkewness 20;
    maxInternalSkewness 4;
    maxConcave      80;
    minVol          1e-15;
    minTetQuality   1e-15;
    minArea         -1;
    minTwist        0.02;
    minDeterminant  0.001;
    minFaceWeight   0.05;
    minVolRatio     0.01;
    minTriangleTwist -1;
    nSmoothScale    4;
    errorReduction  0.75;
}

writeFlags      ( scalarLevels layerSets layerFields );

mergeTolerance  1e-06;
