FoamFile
{
    version         2;
    format          ascii;
    class           dictionary;
    object          snappyHexMeshDict;
}

//_HEADER_//

// Details about SnappyHexMesh parameters can be found in annotated caseDicts:
// - For openfoam.org (development version), see
//   https://github.com/OpenFOAM/OpenFOAM-dev/blob/master/etc/caseDicts/annotated/snappyHexMeshDict
// - For openfoam.com (development version), see
//   https://develop.openfoam.com/Development/openfoam/-/blob/master/etc/caseDicts/annotated/snappyHexMeshDict
// See also links in https://openfoamwiki.net/index.php/SnappyHexMesh

castellatedMesh //_DO_CASTELLATION_//;
snap            //_DO_SNAP_//;
addLayers       //_DO_ADD_LAYERS_//;

mergePatchFaces false;  // Avoid face merging to increase layer coverage

//_GEOMETRY_//

castellatedMeshControls
{
    maxLocalCells   100000;
    maxGlobalCells  10000000;
    minRefinementCells 10;
    maxLoadUnbalance 0.1;
    nCellsBetweenLevels 4;
    //_LOCATIONINMESH_//
    allowFreeStandingZoneFaces true;
    resolveFeatureAngle 30;
    // useLeakClosure true; // OpenFOAM.com option
    handleSnapProblems true;
    useTopologicalSnapDetection true;

    features
    (
//_FEATURES_//
    );

    refinementSurfaces
    {
//_REFINEMENTSURFACES_//
    }

    refinementRegions
    {
//_REFINEMENTREGIONS_//
    }
}

snapControls
{
    nSmoothPatch 2;
    nSmoothInternal 1; // OpenFOAM.com option
    tolerance 2.0;
    nSolveIter 4;
    nRelaxIter 5;
    nFeatureSnapIter 3;
    implicitFeatureSnap false;
    explicitFeatureSnap true;
    multiRegionFeatureSnap true;
    nFaceSplitInterval -1; // OpenFOAM.com option
    releasePoints false;  // multi-region related option
    stringFeatures true;
    avoidDiagonal false;
    strictRegionSnap false;
    concaveAngle 45;
    minAreaRatio 0.3;
}

addLayersControls
{
    // Layer sizing
    relativeSizes true;
    expansionRatio //_EXPANSION_RATIO_//;
    finalLayerThickness //_FINAL_THICKNESS_//;
    minThickness //_MIN_THICKNESS_//;
    nGrow 0;

    // Mesh dependencies
    featureAngle //_LAYER_FEATURE_ANGLE_//;
    mergePatchFacesAngle 45; // OpenFOAM.com option
    layerTerminationAngle -180; // OpenFOAM.com option
    maxFaceThicknessRatio 0.5;
    disableWallEdges false;

    // Mesh displacement iterations
    nSmoothSurfaceNormals 8;
    nSmoothThickness 2;
    nSmoothNormals 0;
    nSmoothDisplacement 12;

    // Medial axis analysis
    //_ANGLE_// 90;
    maxThicknessToMedialRatio 0.5;
    slipFeatureAngle 30;
    nRelaxIter 4;

    // OpenFOAM.com displacement motion solver
    // meshShrinker displacementMotionSolver;
    // solver displacementLaplacian;
    // displacementLaplacianCoeffs { diffusivity quadratic inverseDistance ("wall.*"); }

    // Mesh shrinking overall settings
    nBufferCellsNoExtrude 0;
    nLayerIter 8;
    nRelaxedIter 0;
    nOuterIter //_SHRINKING_OUTER_ITER_//; // OpenFOAM.com option
    additionalReporting true;

    layers
    {
//_LAYERS_//
    }
}

meshQualityControls
{
    nSmoothScale    4;
    errorReduction  0.75;
    #include "meshQualityDict"
}

writeFlags      ( scalarLevels layerSets layerFields );

mergeTolerance  1e-06;
