FoamFile
{
    version         2;
    format          ascii;
    class           dictionary;
    object          snappyHexMeshDict;
}

//_HEADER_//

// Details about SnappyHexMesh parameters can be found in annotated caseDicts:
// - For openfoam.org (development version), see
//   https://github.com/OpenFOAM/OpenFOAM-dev/blob/master/etc/caseDicts/annotated/snappyHexMeshDict
// - For openfoam.com (development version), see
//   https://develop.openfoam.com/Development/openfoam/-/blob/master/etc/caseDicts/annotated/snappyHexMeshDict
// See also links in https://openfoamwiki.net/index.php/SnappyHexMesh

castellatedMesh //_DO_CASTELLATION_//;
snap            //_DO_SNAP_//;
addLayers       //_DO_ADD_LAYERS_//;

//_GEOMETRY_//

castellatedMeshControls
{
    maxLocalCells   100000;
    maxGlobalCells  10000000;
    minRefinementCells 10;
    maxLoadUnbalance 0.1;
    nCellsBetweenLevels 3;
    //_LOCATIONINMESH_//
    allowFreeStandingZoneFaces true;
    resolveFeatureAngle 30;
    features
    (
//_FEATURES_//
    );
    refinementSurfaces
    {
//_REFINEMENTSURFACES_//
    }
    refinementRegions
    {
//_REFINEMENTREGIONS_//
    }
}

snapControls
{
    nSmoothPatch    3;
    tolerance       2.0;
    nSolveIter      30;
    nRelaxIter      5;
    nFeatureSnapIter 10;
    implicitFeatureSnap false;
    explicitFeatureSnap true;
    multiRegionFeatureSnap true;
}

addLayersControls
{
    // Layer sizing
    relativeSizes   true;
    expansionRatio  //_EXPANSION_RATIO_//;
    finalLayerThickness //_FINAL_THICKNESS_//;
    minThickness    //_MIN_THICKNESS_//;
    nGrow           0;

    // Mesh dependencies
    featureAngle    //_LAYER_FEATURE_ANGLE_//;
    mergePatchFacesAngle 45; // OpenFOAM.com option
    layerTerminationAngle -180; // OpenFOAM.com option
    maxFaceThicknessRatio 0.5;

    // Mesh displacement iterations
    nSmoothSurfaceNormals //_NSMOOTH_SURFACE_NORMALS_//;
    nSmoothThickness 10;
    nSmoothNormals  0;
    nSmoothDisplacement 100;

    // Medial axis analysis
    //_ANGLE_// 90;
    maxThicknessToMedialRatio 0.9;
    slipFeatureAngle 30;
    nRelaxIter      1;

    // OpenFOAM.com displacement motion solver
    // meshShrinker displacementMotionSolver;
    // solver displacementLaplacian;
    // displacementLaplacianCoeffs { diffusivity quadratic inverseDistance ("wall.*"); }

    // Mesh shrinking overall settings
    nBufferCellsNoExtrude 0;
    nLayerIter      50;
    nRelaxedIter    0;
    nOuterIter      //_SHRINKING_OUTER_ITER_//; // OpenFOAM.com option

    layers
    {
//_LAYERS_//
    }
}

meshQualityControls
{
    maxNonOrtho     //_MAX_NON_ORTHO_//;
    maxBoundarySkewness 20;
    maxInternalSkewness 4;
    maxConcave      80;
    minVol          1e-15;
    minTetQuality   1e-15;
    minArea         -1;
    minTwist        //_MIN_TWIST_//;
    minDeterminant  0.001;
    minFaceWeight   0.05;
    minVolRatio     0.01;
    minTriangleTwist -1;
    nSmoothScale    4;
    errorReduction  0.75;

    // Relaxed quality criteria for layer addition phase
    relaxed {
        maxNonOrtho //_RELAXED_MAX_NON_ORTHO_//;
        minTwist //_RELAXED_MIN_TWIST_//;
    }
}

writeFlags      ( scalarLevels layerSets layerFields );

mergeTolerance  1e-06;
