FoamFile
{
    version         2;
    format          ascii;
    class           dictionary;
    object          surfaceFeaturesDict;
}

//_HEADER_//


//_FEATURESURFACES_//

